Version 4
SHEET 1 1368 1056
WIRE -128 16 -576 16
WIRE 768 16 -128 16
WIRE 1184 16 768 16
WIRE 1136 64 1104 64
WIRE 1264 64 1216 64
WIRE 800 112 720 112
WIRE 1024 112 992 112
WIRE 1104 112 1104 64
WIRE 992 128 992 112
WIRE 1184 144 1184 16
WIRE 560 160 528 160
WIRE 640 160 640 112
WIRE 768 160 768 16
WIRE 768 160 720 160
WIRE 1104 160 1104 112
WIRE 1152 160 1104 160
WIRE 448 176 400 176
WIRE 528 176 528 160
WIRE 1264 176 1264 64
WIRE 1264 176 1216 176
WIRE 1344 176 1264 176
WIRE 1360 176 1344 176
WIRE 720 192 720 160
WIRE 1152 192 1104 192
WIRE 640 208 640 160
WIRE 688 208 640 208
WIRE 720 208 720 192
WIRE 1248 208 1184 208
WIRE -576 224 -576 16
WIRE 368 224 -576 224
WIRE 800 224 800 112
WIRE 800 224 752 224
WIRE 896 224 800 224
WIRE 1024 224 896 224
WIRE 1104 224 1104 192
WIRE 368 240 368 224
WIRE 688 240 640 240
WIRE 320 256 320 176
WIRE 320 256 272 256
WIRE 336 256 320 256
WIRE -576 272 -576 224
WIRE 448 272 448 176
WIRE 448 272 400 272
WIRE 560 272 448 272
WIRE 640 272 640 240
WIRE 336 288 304 288
WIRE -64 304 -256 304
WIRE 1104 304 1104 224
WIRE 1136 304 1104 304
WIRE 1264 304 1264 176
WIRE 1264 304 1216 304
WIRE 304 320 304 288
WIRE 1104 336 1104 304
WIRE -128 352 -128 16
WIRE -256 368 -256 304
WIRE -160 368 -256 368
WIRE -576 384 -576 352
WIRE -576 384 -608 384
WIRE -64 384 -64 304
WIRE -64 384 -96 384
WIRE 32 384 -64 384
WIRE 272 384 272 256
WIRE 272 384 112 384
WIRE 640 384 640 272
WIRE 688 384 640 384
WIRE 800 384 800 224
WIRE 800 384 768 384
WIRE -160 400 -352 400
WIRE -576 416 -576 384
WIRE -352 432 -352 400
WIRE 1088 512 848 512
WIRE 1104 512 1104 400
WIRE 1104 512 1088 512
WIRE 1248 512 1248 208
WIRE 1248 512 1104 512
WIRE 1088 528 1088 512
WIRE 1344 544 1344 176
WIRE 1344 544 1120 544
WIRE 272 560 272 384
WIRE 912 560 272 560
WIRE 1040 560 992 560
WIRE 1056 560 1040 560
WIRE 1136 576 1120 576
WIRE 1152 576 1136 576
WIRE -576 608 -576 496
WIRE -128 608 -128 416
WIRE -128 608 -576 608
WIRE 624 608 -128 608
WIRE 640 608 640 448
WIRE 640 608 624 608
WIRE 848 608 848 512
WIRE 848 608 640 608
WIRE 624 624 624 608
WIRE 624 640 624 624
WIRE 896 640 896 224
WIRE 896 640 656 640
WIRE 272 656 272 560
WIRE 432 656 272 656
WIRE 576 656 512 656
WIRE 592 656 576 656
WIRE 768 672 656 672
WIRE 1040 752 1040 560
WIRE 1056 752 1040 752
WIRE 1136 752 1136 576
WIRE 576 816 576 656
WIRE 768 816 768 672
WIRE 768 816 576 816
FLAG 528 176 0
FLAG 992 128 0
FLAG -352 512 0
FLAG 304 320 0
FLAG -608 384 0
FLAG 1232 576 0
FLAG 368 384 0
FLAG 720 336 0
FLAG 624 768 0
FLAG 1088 672 0
SYMBOL voltage -352 416 R0
WINDOW 123 0 0 Left 0
WINDOW 39 0 0 Left 0
SYMATTR InstName g
SYMATTR Value 3
SYMBOL res 656 144 R90
WINDOW 0 0 56 VBottom 2
WINDOW 3 32 56 VTop 2
SYMATTR InstName R1
SYMATTR Value 20k
SYMBOL res 656 256 R90
WINDOW 0 0 56 VBottom 2
WINDOW 3 32 56 VTop 2
SYMATTR InstName R3
SYMATTR Value 20k
SYMBOL res 1120 96 R90
WINDOW 0 0 56 VBottom 2
WINDOW 3 32 56 VTop 2
SYMATTR InstName R5
SYMATTR Value 20k
SYMBOL res 1232 48 R90
WINDOW 0 0 56 VBottom 2
WINDOW 3 32 56 VTop 2
SYMATTR InstName R6
SYMATTR Value 20k
SYMBOL res 1120 208 R90
WINDOW 0 0 56 VBottom 2
WINDOW 3 32 56 VTop 2
SYMATTR InstName R7
SYMATTR Value 20k
SYMBOL res 1232 288 R90
WINDOW 0 0 56 VBottom 2
WINDOW 3 32 56 VTop 2
SYMATTR InstName R8
SYMATTR Value 20k
SYMBOL cap 1088 336 R0
WINDOW 39 24 84 Left 2
SYMATTR SpiceLine ic=17
SYMATTR InstName C2
SYMATTR Value 100µ
SYMBOL res 1248 560 R90
WINDOW 0 0 56 VBottom 2
WINDOW 3 32 56 VTop 2
SYMATTR InstName R9
SYMATTR Value 10k
SYMBOL res 416 160 R90
WINDOW 0 0 56 VBottom 2
WINDOW 3 32 56 VTop 2
SYMATTR InstName R14
SYMATTR Value 10k
SYMBOL res 128 368 R90
WINDOW 0 0 56 VBottom 2
WINDOW 3 32 56 VTop 2
SYMATTR InstName R15
SYMATTR Value 10k
SYMBOL voltage -576 256 R0
WINDOW 123 0 0 Left 0
WINDOW 39 0 0 Left 0
SYMATTR InstName V1
SYMATTR Value 15
SYMBOL voltage -576 400 R0
WINDOW 123 0 0 Left 0
WINDOW 39 0 0 Left 0
SYMATTR InstName V2
SYMATTR Value 15
SYMBOL Auto\\TL084 -128 384 R0
SYMATTR InstName U7
SYMBOL Auto\\TL084 368 272 R0
WINDOW 3 16 -4 Left 2
SYMATTR InstName U8
SYMBOL Auto\\TL084 720 224 R0
WINDOW 3 16 -4 Left 2
SYMATTR InstName U9
SYMBOL Auto\\TL084 1184 176 R0
SYMATTR InstName U10
SYMBOL Auto\\TL084 1088 560 R180
SYMATTR InstName U11
SYMBOL Auto\\TL084 624 656 R180
SYMATTR InstName U12
SYMBOL res 528 640 R90
WINDOW 0 0 56 VBottom 2
WINDOW 3 32 56 VTop 2
SYMATTR InstName R17
SYMATTR Value 10k
SYMBOL voltage 368 288 R0
SYMATTR InstName V3
SYMATTR Value -15
SYMBOL res 1008 544 R90
WINDOW 0 0 56 VBottom 2
WINDOW 3 32 56 VTop 2
SYMATTR InstName R16
SYMATTR Value 10k
SYMBOL res 736 96 R90
WINDOW 0 0 56 VBottom 2
WINDOW 3 32 56 VTop 2
SYMATTR InstName R2
SYMATTR Value 20k
SYMBOL voltage 720 240 R0
WINDOW 123 0 0 Left 0
WINDOW 39 0 0 Left 0
SYMATTR InstName V4
SYMATTR Value -15
SYMBOL res 784 368 R90
WINDOW 0 0 56 VBottom 0
WINDOW 3 32 56 VTop 2
SYMATTR InstName R4
SYMATTR Value 20k
SYMBOL cap 624 384 R0
WINDOW 39 24 84 Left 2
SYMATTR SpiceLine ic=10.1
SYMATTR InstName C1
SYMATTR Value 100µ
SYMBOL voltage 624 672 R0
WINDOW 123 0 0 Left 0
WINDOW 39 0 0 Left 0
SYMATTR InstName V5
SYMATTR Value 15
SYMBOL voltage 1088 576 R0
SYMATTR InstName V6
SYMATTR Value 15
SYMBOL res 1152 736 R90
WINDOW 0 0 56 VBottom 2
WINDOW 3 32 56 VTop 2
SYMATTR InstName R94
SYMATTR Value 40k
TEXT -624 848 Left 2 !.tran 10
