Version 4
SHEET 1 1108 680
WIRE -384 -304 -832 -304
WIRE 112 -304 -384 -304
WIRE 224 -304 112 -304
WIRE 464 -304 224 -304
WIRE 928 -304 464 -304
WIRE 880 -256 848 -256
WIRE 1008 -256 960 -256
WIRE 416 -208 384 -208
WIRE 544 -208 496 -208
WIRE 768 -208 736 -208
WIRE 848 -208 848 -256
WIRE 736 -192 736 -208
WIRE 928 -176 928 -304
WIRE 304 -160 272 -160
WIRE 384 -160 384 -208
WIRE 848 -160 848 -208
WIRE 896 -160 848 -160
WIRE 192 -144 144 -144
WIRE 272 -144 272 -160
WIRE 1008 -144 1008 -256
WIRE 1008 -144 960 -144
WIRE 1088 -144 1008 -144
WIRE 464 -128 464 -304
WIRE 896 -128 848 -128
WIRE 384 -112 384 -160
WIRE 432 -112 384 -112
WIRE 544 -96 544 -208
WIRE 544 -96 496 -96
WIRE 640 -96 544 -96
WIRE 768 -96 640 -96
WIRE 848 -96 848 -128
WIRE 112 -80 112 -304
WIRE 432 -80 384 -80
WIRE 64 -64 64 -144
WIRE 64 -64 16 -64
WIRE 80 -64 64 -64
WIRE -832 -48 -832 -304
WIRE 192 -48 192 -144
WIRE 192 -48 144 -48
WIRE 304 -48 192 -48
WIRE 384 -48 384 -80
WIRE 80 -32 48 -32
WIRE -320 -16 -512 -16
WIRE 848 -16 848 -96
WIRE 880 -16 848 -16
WIRE 1008 -16 1008 -144
WIRE 1008 -16 960 -16
WIRE 48 0 48 -32
WIRE 848 16 848 -16
WIRE -384 32 -384 -304
WIRE 384 32 384 -48
WIRE 416 32 384 32
WIRE 544 32 544 -96
WIRE 544 32 496 32
WIRE -512 48 -512 -16
WIRE -416 48 -512 48
WIRE -832 64 -832 32
WIRE -832 64 -864 64
WIRE -320 64 -320 -16
WIRE -320 64 -352 64
WIRE -224 64 -320 64
WIRE 16 64 16 -64
WIRE 16 64 -144 64
WIRE 384 64 384 32
WIRE -416 80 -608 80
WIRE -832 96 -832 64
WIRE -608 112 -608 80
WIRE -832 240 -832 176
WIRE -384 240 -384 96
WIRE -384 240 -832 240
WIRE 112 240 112 -16
WIRE 112 240 -384 240
WIRE 384 240 384 128
WIRE 384 240 112 240
WIRE 464 240 464 -64
WIRE 464 240 384 240
WIRE 848 240 848 80
WIRE 848 240 464 240
WIRE 928 240 928 -112
WIRE 928 240 848 240
WIRE 16 272 16 64
WIRE 384 304 384 240
WIRE 384 304 368 304
WIRE 640 320 640 -96
WIRE 640 320 400 320
WIRE 320 336 304 336
WIRE 336 336 320 336
WIRE 304 352 304 336
WIRE 304 352 16 352
WIRE 512 352 400 352
WIRE 368 368 368 352
WIRE 224 432 224 -304
WIRE 368 432 368 368
WIRE 368 432 224 432
WIRE 320 448 320 336
WIRE 512 448 512 352
WIRE 512 448 320 448
FLAG 272 -144 0
FLAG 736 -192 0
FLAG -608 192 0
FLAG 48 0 0
FLAG -864 64 0
SYMBOL voltage -608 96 R0
WINDOW 123 0 0 Left 0
WINDOW 39 0 0 Left 0
SYMATTR InstName g1
SYMATTR Value 9.8
SYMBOL res 400 -176 R90
WINDOW 0 0 56 VBottom 2
WINDOW 3 32 56 VTop 2
SYMATTR InstName R1
SYMATTR Value 10k
SYMBOL res 512 -224 R90
WINDOW 0 0 56 VBottom 2
WINDOW 3 32 56 VTop 2
SYMATTR InstName R2
SYMATTR Value 10k
SYMBOL res 400 -64 R90
WINDOW 0 0 56 VBottom 2
WINDOW 3 32 56 VTop 2
SYMATTR InstName R3
SYMATTR Value 20k
SYMBOL res 512 16 R90
WINDOW 0 0 56 VBottom 2
WINDOW 3 32 56 VTop 2
SYMATTR InstName R4
SYMATTR Value 20k
SYMBOL cap 368 64 R0
WINDOW 39 24 84 Left 2
SYMATTR SpiceLine ic=19.9
SYMATTR InstName C1
SYMATTR Value 100µ
SYMBOL res 864 -224 R90
WINDOW 0 0 56 VBottom 2
WINDOW 3 32 56 VTop 2
SYMATTR InstName R5
SYMATTR Value 10k
SYMBOL res 976 -272 R90
WINDOW 0 0 56 VBottom 2
WINDOW 3 32 56 VTop 2
SYMATTR InstName R6
SYMATTR Value 10k
SYMBOL res 864 -112 R90
WINDOW 0 0 56 VBottom 2
WINDOW 3 32 56 VTop 2
SYMATTR InstName R7
SYMATTR Value 20k
SYMBOL res 976 -32 R90
WINDOW 0 0 56 VBottom 2
WINDOW 3 32 56 VTop 2
SYMATTR InstName R8
SYMATTR Value 20k
SYMBOL cap 832 16 R0
WINDOW 39 24 84 Left 2
SYMATTR SpiceLine ic=17
SYMATTR InstName C2
SYMATTR Value 100µ
SYMBOL res 160 -160 R90
WINDOW 0 0 56 VBottom 2
WINDOW 3 32 56 VTop 2
SYMATTR InstName R11
SYMATTR Value 5k
SYMBOL res -128 48 R90
WINDOW 0 0 56 VBottom 2
WINDOW 3 32 56 VTop 2
SYMATTR InstName R12
SYMATTR Value 5k
SYMBOL voltage -832 -64 R0
WINDOW 123 0 0 Left 0
WINDOW 39 0 0 Left 0
SYMATTR InstName V1
SYMATTR Value 15
SYMBOL voltage -832 80 R0
WINDOW 123 0 0 Left 0
WINDOW 39 0 0 Left 0
SYMATTR InstName V2
SYMATTR Value 15
SYMBOL auto\\TL084 -384 64 R0
SYMATTR InstName U1
SYMBOL auto\\TL084 112 -48 R0
SYMATTR InstName U2
SYMBOL auto\\TL084 464 -96 R0
SYMATTR InstName U3
SYMBOL auto\\TL084 928 -144 R0
SYMATTR InstName U4
SYMBOL auto\\TL084 368 336 R180
SYMATTR InstName U6
SYMBOL res 0 256 R0
SYMATTR InstName R14
SYMATTR Value 5k
TEXT -880 528 Left 2 !.tran 0 10 0 0.1
