Version 4
SHEET 1 1524 704
WIRE 32 -144 -416 -144
WIRE 528 -144 32 -144
WIRE 880 -144 528 -144
WIRE 1344 -144 880 -144
WIRE 1296 -96 1264 -96
WIRE 1424 -96 1376 -96
WIRE 832 -48 800 -48
WIRE 960 -48 912 -48
WIRE 1184 -48 1152 -48
WIRE 1264 -48 1264 -96
WIRE 1152 -32 1152 -48
WIRE 1344 -16 1344 -144
WIRE 720 0 688 0
WIRE 800 0 800 -48
WIRE 1264 0 1264 -48
WIRE 1312 0 1264 0
WIRE 608 16 560 16
WIRE 688 16 688 0
WIRE 1424 16 1424 -96
WIRE 1424 16 1376 16
WIRE 1504 16 1424 16
WIRE 880 32 880 -144
WIRE 1312 32 1264 32
WIRE 800 48 800 0
WIRE 848 48 800 48
WIRE 960 64 960 -48
WIRE 960 64 912 64
WIRE 1184 64 960 64
WIRE 1264 64 1264 32
WIRE 528 80 528 -144
WIRE 848 80 800 80
WIRE 480 96 480 16
WIRE 480 96 432 96
WIRE 496 96 480 96
WIRE -416 112 -416 -144
WIRE 608 112 608 16
WIRE 608 112 560 112
WIRE 720 112 608 112
WIRE 800 112 800 80
WIRE 496 128 464 128
WIRE 96 144 -96 144
WIRE 1264 144 1264 64
WIRE 1296 144 1264 144
WIRE 1424 144 1424 16
WIRE 1424 144 1376 144
WIRE 464 160 464 128
WIRE 1264 176 1264 144
WIRE 32 192 32 -144
WIRE 800 192 800 112
WIRE 832 192 800 192
WIRE 960 192 960 64
WIRE 960 192 912 192
WIRE -96 208 -96 144
WIRE 0 208 -96 208
WIRE -416 224 -416 192
WIRE -416 224 -448 224
WIRE 96 224 96 144
WIRE 96 224 64 224
WIRE 192 224 96 224
WIRE 432 224 432 96
WIRE 432 224 272 224
WIRE 800 224 800 192
WIRE 0 240 -192 240
WIRE -416 256 -416 224
WIRE -192 272 -192 240
WIRE -416 672 -416 336
WIRE 32 672 32 256
WIRE 32 672 -416 672
WIRE 528 672 528 144
WIRE 528 672 32 672
WIRE 800 672 800 288
WIRE 800 672 528 672
WIRE 880 672 880 96
WIRE 880 672 800 672
WIRE 1264 672 1264 240
WIRE 1264 672 880 672
WIRE 1344 672 1344 48
WIRE 1344 672 1264 672
FLAG 688 16 0
FLAG 1152 -32 0
FLAG -192 352 0
FLAG 464 160 0
FLAG -448 224 0
SYMBOL voltage -192 256 R0
WINDOW 123 0 0 Left 0
WINDOW 39 0 0 Left 0
SYMATTR InstName g1
SYMATTR Value 9.8
SYMBOL res 816 -16 R90
WINDOW 0 0 56 VBottom 2
WINDOW 3 32 56 VTop 2
SYMATTR InstName R1
SYMATTR Value 10k
SYMBOL res 928 -64 R90
WINDOW 0 0 56 VBottom 2
WINDOW 3 32 56 VTop 2
SYMATTR InstName R2
SYMATTR Value 10k
SYMBOL res 816 96 R90
WINDOW 0 0 56 VBottom 2
WINDOW 3 32 56 VTop 2
SYMATTR InstName R3
SYMATTR Value 20k
SYMBOL res 928 176 R90
WINDOW 0 0 56 VBottom 2
WINDOW 3 32 56 VTop 2
SYMATTR InstName R4
SYMATTR Value 20k
SYMBOL cap 784 224 R0
WINDOW 39 24 84 Left 2
SYMATTR SpiceLine ic=10.1
SYMATTR InstName C1
SYMATTR Value 100µ
SYMBOL res 1280 -64 R90
WINDOW 0 0 56 VBottom 2
WINDOW 3 32 56 VTop 2
SYMATTR InstName R5
SYMATTR Value 10k
SYMBOL res 1392 -112 R90
WINDOW 0 0 56 VBottom 2
WINDOW 3 32 56 VTop 2
SYMATTR InstName R6
SYMATTR Value 10k
SYMBOL res 1280 48 R90
WINDOW 0 0 56 VBottom 2
WINDOW 3 32 56 VTop 2
SYMATTR InstName R7
SYMATTR Value 20k
SYMBOL res 1392 128 R90
WINDOW 0 0 56 VBottom 2
WINDOW 3 32 56 VTop 2
SYMATTR InstName R8
SYMATTR Value 20k
SYMBOL cap 1248 176 R0
WINDOW 39 24 84 Left 2
SYMATTR SpiceLine ic=17
SYMATTR InstName C2
SYMATTR Value 100µ
SYMBOL res 576 0 R90
WINDOW 0 0 56 VBottom 2
WINDOW 3 32 56 VTop 2
SYMATTR InstName R11
SYMATTR Value 5k
SYMBOL res 288 208 R90
WINDOW 0 0 56 VBottom 2
WINDOW 3 32 56 VTop 2
SYMATTR InstName R12
SYMATTR Value 5k
SYMBOL voltage -416 96 R0
WINDOW 123 0 0 Left 0
WINDOW 39 0 0 Left 0
SYMATTR InstName V1
SYMATTR Value 15
SYMBOL voltage -416 240 R0
WINDOW 123 0 0 Left 0
WINDOW 39 0 0 Left 0
SYMATTR InstName V2
SYMATTR Value 15
SYMBOL Auto\\TL084 32 224 R0
SYMATTR InstName U1
SYMBOL Auto\\TL084 528 112 R0
SYMATTR InstName U2
SYMBOL Auto\\TL084 880 64 R0
SYMATTR InstName U3
SYMBOL Auto\\TL084 1344 16 R0
SYMATTR InstName U4
TEXT -464 688 Left 2 !.tran 0 10 0 0.1
